Version 4
SHEET 1 900 680
WIRE -112 -240 -224 -240
WIRE -96 -240 -112 -240
WIRE 48 -240 -16 -240
WIRE -112 -176 -112 -240
WIRE 48 -160 48 -240
WIRE 0 -144 -64 -144
WIRE -224 -48 -224 -240
WIRE -208 -48 -224 -48
WIRE -64 -48 -64 -144
WIRE -64 -48 -128 -48
WIRE 48 -32 48 -64
WIRE 48 -16 48 -32
WIRE -64 64 -64 -48
WIRE 0 64 -64 64
WIRE 48 96 48 80
FLAG 48 96 0
FLAG -112 -176 0
FLAG -64 -48 Vi
IOPIN -64 -48 In
FLAG 48 -32 Vo
IOPIN 48 -32 Out
SYMBOL nmos 0 -16 R0
SYMATTR InstName M1
SYMBOL pmos 0 -64 M180
SYMATTR InstName M2
SYMBOL voltage 0 -240 R90
WINDOW 0 -32 56 VBottom 2
WINDOW 3 32 56 VTop 2
SYMATTR InstName V1
SYMATTR Value 3.3V
SYMBOL voltage -112 -48 R90
WINDOW 0 -32 56 VBottom 2
WINDOW 3 71 131 VTop 2
WINDOW 123 0 0 Left 2
WINDOW 39 0 0 Left 2
SYMATTR InstName V2
SYMATTR Value ""
TEXT 128 128 Left 2 !.model nmos nmos(level = 1 kp = {X} w=2u l = 1u vto = 0.75)
TEXT 120 -168 Left 2 !.model pmos pmos(level = 1 kp = 30 w=5u l = 1u vto = -0.75)
TEXT -488 152 Left 2 !.dc V2 0 3.3v 0.01
TEXT 136 176 Left 2 !.step param X 30 240 30
